CM Length L in mtr. = .512
CM Radius R1 in cm. = 17.8
CM Radius R2 in cm. = 17.8
CM Number of turns = .5
CM Segments per turn = 30
CM Rotate X, Y, Z = 0, 0, 0
CM Move X, Y, Z = 0, 0, 0
CE
SY mov = .024
SY sp=.015
SY stb = .05
SY felen = sp/3
SY rad = .004
GW	24	1	.178	0	.0+mov	.17411	-.037008	.034133+mov	rad
GW	25	1	.17411	-.037008	.034133+mov	.162611	-.072399	.068267+mov	rad
GW	26	1	.162611	-.072399	.068267+mov	.144005	-.104626	.1024+mov	rad
GW	27	1	.144005	-.104626	.1024+mov	.119105	-.13228	.136533+mov	rad
GW	28	1	.119105	-.13228	.136533+mov	.089	-.154153	.170667+mov	rad
GW	29	1	.089	-.154153	.170667+mov	.055005	-.169288	.2048+mov	rad
GW	30	1	.055005	-.169288	.2048+mov	.018606	-.177025	.238933+mov	rad
GW	31	1	.018606	-.177025	.238933+mov	-.018606	-.177025	.273067+mov	rad
GW	32	1	-.018606	-.177025	.273067+mov	-.055005	-.169288	.3072+mov	rad
GW	33	1	-.055005	-.169288	.3072+mov	-.089	-.154153	.341333+mov	rad
GW	34	1	-.089	-.154153	.341333+mov	-.119105	-.13228	.375467+mov	rad
GW	35	1	-.119105	-.13228	.375467+mov	-.144005	-.104626	.4096+mov	rad
GW	36	1	-.144005	-.104626	.4096+mov	-.162611	-.072399	.443733+mov	rad
GW	37	1	-.162611	-.072399	.443733+mov	-.17411	-.037008	.477867+mov	rad
GW	38	1	-.17411	-.037008	.477867+mov	-.178	0	.512+mov	rad
GW	39	1	-.178	0	0+mov	-.17411	.037008	.034133+mov	rad
GW	40	1	-.17411	.037008	.034133+mov	-.162611	.072399	.068267+mov	rad
GW	41	1	-.162611	.072399	.068267+mov	-.144005	.104626	.1024+mov	rad
GW	42	1	-.144005	.104626	.1024+mov	-.119105	.13228	.136533+mov	rad
GW	43	1	-.119105	.13228	.136533+mov	-.089	.154153	.170667+mov	rad
GW	44	1	-.089	.154153	.170667+mov	-.055005	.169288	.2048+mov	rad
GW	45	1	-.055005	.169288	.2048+mov	-.018606	.177025	.238933+mov	rad
GW	46	1	-.018606	.177025	.238933+mov	.018606	.177025	.273067+mov	rad
GW	47	1	.018606	.177025	.273067+mov	.055005	.169288	.3072+mov	rad
GW	48	1	.055005	.169288	.3072+mov	.089	.154153	.341333+mov	rad
GW	49	1	.089	.154153	.341333+mov	.119105	.13228	.375467+mov	rad
GW	50	1	.119105	.13228	.375467+mov	.144005	.104626	.4096+mov	rad
GW	51	1	.144005	.104626	.4096+mov	.162611	.072399	.443733+mov	rad
GW	52	1	.162611	.072399	.443733+mov	.17411	.037008	.477867+mov	rad
GW	53	1	.17411	.037008	.477867+mov	.178	0	.512+mov	rad
GW	54	1	0	-.187	0	-.038879	-.182914	.037333	rad
GW	55	1	-.038879	-.182914	.037333	-.07606	-.170833	.074667	rad
GW	56	1	-.07606	-.170833	.074667	-.109916	-.151286	.112	rad
GW	57	1	-.109916	-.151286	.112	-.138968	-.125127	.149333	rad
GW	58	1	-.138968	-.125127	.149333	-.161947	-.0935	.186667	rad
GW	59	1	-.161947	-.0935	.186667	-.177848	-.057786	.224	rad
GW	60	1	-.177848	-.057786	.224	-.185976	-.019547	.261333	rad
GW	61	1	-.185976	-.019547	.261333	-.185976	.019547	.298667	rad
GW	62	1	-.185976	.019547	.298667	-.177848	.057786	.336	rad
GW	63	1	-.177848	.057786	.336	-.161947	.0935	.373333	rad
GW	64	1	-.161947	.0935	.373333	-.138968	.125127	.410667	rad
GW	65	1	-.138968	.125127	.410667	-.109916	.151286	.448	rad
GW	66	1	-.109916	.151286	.448	-.07606	.170833	.485333	rad
GW	67	1	-.07606	.170833	.485333	-.038879	.182914	.522667	rad
GW	68	1	-.038879	.182914	.522667	0	.187	.56	rad
GW	69	1	0	.187	0	.038879	.182914	.037333	rad
GW	70	1	.038879	.182914	.037333	.07606	.170833	.074667	rad
GW	71	1	.07606	.170833	.074667	.109916	.151286	.112	rad
GW	72	1	.109916	.151286	.112	.138968	.125127	.149333	rad
GW	73	1	.138968	.125127	.149333	.161947	.0935	.186667	rad
GW	74	1	.161947	.0935	.186667	.177848	.057786	.224	rad
GW	75	1	.177848	.057786	.224	.185976	.019547	.261333	rad
GW	76	1	.185976	.019547	.261333	.185976	-.019547	.298667	rad
GW	77	1	.185976	-.019547	.298667	.177848	-.057786	.336	rad
GW	78	1	.177848	-.057786	.336	.161947	-.0935	.373333	rad
GW	79	1	.161947	-.0935	.373333	.138968	-.125127	.410667	rad
GW	80	1	.138968	-.125127	.410667	.109916	-.151286	.448	rad
GW	81	1	.109916	-.151286	.448	.07606	-.170833	.485333	rad
GW	82	1	.07606	-.170833	.485333	.038879	-.182914	.522667	rad
GW	83	1	.038879	-.182914	.522667	0	-.187	.56	rad
GW	84	10	0	0.187	0	0	-.187	0	rad
GW	85	10	.178	0	.024	-.178	0	.024	rad
GW	86	10	0	.187	.56	0	0+sp	.56	rad
GW	87	10	0	-.187	.56	0	0-sp	.56	rad
GW	88	3	0+sp	0	.56	0+stb	0	.56	rad	'stub
GW	89	3	0-sp	0	.56	0-stb	0	.56	rad	'stub
GW	90	7	0+stb	0	.56	.178	0	.536	rad
GW	91	7	0-stb	0	.56	-.178	0	.536	rad
GW	92	1	0+felen	0+felen	.56	0-felen	0-felen	.56	rad	'feed
GW	93	1	0+felen	0+felen	.56	0+sp	0	.56	rad
GW	94	1	0+felen	0+felen	.56	0	0+sp	.56	rad
GW	95	1	0-felen	0-felen	.56	0-sp	0	.56	rad
GW	96	1	0-felen	0-felen	.56	0	0-sp	.56	rad
GE	0
GN	-1
EK
EX	0	92	1	0	1	0	0	0

FR	0	0	0	0	137.5	0
EN
